/*--------------------------------*- C++ -*----------------------------------*\
| =========                 |                                                 |
| \\      /  F ield         | OpenFOAM: The Open Source CFD Toolbox           |
|  \\    /   O peration     | Version:  v2306                                 |
|   \\  /    A nd           | Website:  www.openfoam.com                      |
|    \\/     M anipulation  |                                                 |
\*---------------------------------------------------------------------------*/
FoamFile
{
    version     2.0;
    format      ascii;
    class       volVectorField;
    object      U;
}
// * * * * * * * * * * * * * * * * * * * * * * * * * * * * * * * * * * * * * //

dimensions      [0 1 -1 0 0 0 0];

internalField   uniform (0 0 0);

nu 1.15e-6;
d 0.1;
Re 100;
v #eval{$Re * ($nu/$d)};

boundaryField
{
    Wall
    {
        type            noSlip;
    }
    inlet
    {
        type            fixedValue;
        value           uniform ($v 0 0);
    }
    outlet
    {
        type            zeroGradient;
    }
    sides
    {
        type            empty;
    }
}
// ************************************************************************* //
